*SPEF "1481-1998"
*DESIGN "cruisecontrol"
*DATE "Wed Dec 20 07:38:31 2017"
*VENDOR "Synopsys, Inc."
*PROGRAM "icc_shell"
*VERSION "G-2012.06-ICC-SP2"
*DESIGN_FLOW "PIN_CAP NONE"
*DIVIDER /
*DELIMITER :
*BUS_DELIMITER [ ]
*T_UNIT 1 NS
*C_UNIT 1 FF
*R_UNIT 1 OHM
*L_UNIT 1 HENRY

*NAME_MAP
*1 speed[1]
*2 speed[0]
*3 cruisespeed[1]
*4 cruisespeed[0]
*5 speed[7]
*6 speed[6]
*7 speed[5]
*8 speed[4]
*9 speed[3]
*10 speed[2]
*11 reset
*12 clk
*13 cruisespeed[7]
*14 cruisespeed[6]
*15 cruisespeed[5]
*16 cruisespeed[4]
*17 cruisespeed[3]
*18 cruisespeed[2]
*19 cruisectrl
*20 brake
*21 resume
*22 cancel
*23 coast
*24 accel
*25 set
*26 throttle
*27 r113/carry\[7\]
*28 r113/U2
*29 r113/U1_1_6
*30 U294
*31 U280
*32 U196
*33 speed_reg_7_
*34 n2
*35 U195
*36 r113/U1
*37 r113/U1_1_1
*38 U320
*39 U305
*40 U268
*41 U193
*42 speed_reg_0_
*43 n9
*44 U295
*45 U254
*46 U179
*47 speed_reg_1_
*48 r113/carry\[2\]
*49 r113/U1_1_2
*50 n8
*51 U176
*52 U270
*53 speed_reg_2_
*54 r113/carry\[3\]
*55 r113/U1_1_3
*56 n7
*57 U178
*58 U310
*59 U308
*60 U272
*61 U255
*62 U182
*63 speed_reg_3_
*64 r113/carry\[4\]
*65 r113/U1_1_4
*66 n6
*67 U181
*68 U296
*69 U274
*70 U256
*71 U185
*72 speed_reg_4_
*73 r113/carry\[5\]
*74 r113/U1_1_5
*75 n5
*76 U184
*77 U314
*78 U300
*79 U276
*80 U257
*81 U188
*82 speed_reg_5_
*83 r113/carry\[6\]
*84 n4
*85 U187
*86 speed_reg_6_
*87 U317
*88 U316
*89 U279
*90 U278
*91 U258
*92 U191
*93 n3
*94 U190
*95 add_118/carry\[7\]
*96 add_118/U2
*97 add_118/U1_1_6
*98 U318
*99 U298
*100 U293
*101 U216
*102 cruisespeed_reg_7_
*103 N1531
*104 U215
*105 add_118/U1
*106 add_118/U1_1_1
*107 U281
*108 U234
*109 cruisespeed_reg_0_
*110 N146
*111 U233
*112 U322
*113 U307
*114 U231
*115 cruisespeed_reg_1_
*116 add_118/carry\[2\]
*117 add_118/U1_1_2
*118 N147
*119 U230
*120 U303
*121 U302
*122 U283
*123 U222
*124 cruisespeed_reg_2_
*125 add_118/carry\[3\]
*126 add_118/U1_1_3
*127 N148
*128 U221
*129 U285
*130 U219
*131 cruisespeed_reg_3_
*132 add_118/carry\[4\]
*133 add_118/U1_1_4
*134 N149
*135 U218
*136 U311
*137 U299
*138 U287
*139 U237
*140 cruisespeed_reg_4_
*141 add_118/carry\[5\]
*142 add_118/U1_1_5
*143 N150
*144 U236
*145 U289
*146 U228
*147 cruisespeed_reg_5_
*148 add_118/carry\[6\]
*149 N151
*150 U227
*151 U327
*152 U292
*153 U291
*154 U225
*155 cruisespeed_reg_6_
*156 N1521
*157 U224
*158 n205
*159 U328
*160 U319
*161 n207
*162 n206
*163 N1900
*164 U129
*165 n215
*166 U86
*167 n204
*168 U326
*169 n203
*170 n201
*171 U301
*172 n202
*173 U325
*174 n214
*175 U168
*176 n198
*177 U312
*178 n219
*179 U169
*180 n199
*181 U313
*182 n194
*183 U324
*184 U309
*185 n196
*186 U323
*187 n195
*188 U156
*189 n197
*190 n191
*191 U304
*192 n193
*193 n192
*194 n19000
*195 U321
*196 n210
*197 U175
*198 U306
*199 U269
*200 U264
*201 U229
*202 n18900
*203 n218
*204 U282
*205 n221
*206 U252
*207 n188
*208 U251
*209 U135
*210 n216
*211 U73
*212 n217
*213 n186
*214 U315
*215 n187
*216 n200
*217 n185
*218 n184
*219 n208
*220 U290
*221 n183
*222 n212
*223 n182
*224 n213
*225 U275
*226 U263
*227 U235
*228 U183
*229 n209
*230 U286
*231 n181
*232 n220
*233 U253
*234 n179
*235 n178
*236 n180
*237 n211
*238 U271
*239 U220
*240 U177
*241 n177
*242 U297
*243 n176
*244 N58
*245 U210
*246 n175
*247 n1660
*248 N1700
*249 n174
*250 U159
*251 n1650
*252 N1690
*253 n1640
*254 U165
*255 N1680
*256 n173
*257 U288
*258 n163
*259 U167
*260 n1670
*261 N1671
*262 n172
*263 n162
*264 U166
*265 N1661
*266 n171
*267 U284
*268 n161
*269 U161
*270 n16900
*271 N1651
*272 n17000
*273 n16800
*274 N1641
*275 n1530
*276 N77
*277 n160
*278 U277
*279 U158
*280 n1520
*281 N76
*282 n1510
*283 U162
*284 n155
*285 U226
*286 U186
*287 N75
*288 n159
*289 n1500
*290 U163
*291 N74
*292 n158
*293 U273
*294 n1490
*295 U164
*296 n154
*297 U102
*298 N73
*299 n157
*300 n1480
*301 U160
*302 N72
*303 n156
*304 N70
*305 U232
*306 U192
*307 N71
*308 n38
*309 U267
*310 U266
*311 U260
*312 U199
*313 U124
*314 state_reg_1_
*315 n33
*316 U265
*317 U211
*318 state_reg_2_
*319 n39
*320 U259
*321 U208
*322 state_reg_0_
*323 n106
*324 U146
*325 U141
*326 state\[0\]
*327 state\[2\]
*328 n730
*329 U261
*330 U239
*331 U171
*332 state\[1\]
*333 n700
*334 U249
*335 U202
*336 U145
*337 U144
*338 n120
*339 U262
*340 n119
*341 n118
*342 n720
*343 U157
*344 U125
*345 n83
*346 U212
*347 U200
*348 U127
*349 n64
*350 U243
*351 U198
*352 U170
*353 U147
*354 r116_carry\[6\]
*355 r116_carry\[7\]
*356 r116_carry\[5\]
*357 r116_carry\[4\]
*358 r116_carry\[3\]
*359 N1890
*360 U151
*361 U250
*362 U197
*363 n231
*364 U207
*365 U150
*366 U238
*367 n710
*368 U148
*369 U143
*370 n236
*371 n69
*372 U248
*373 n228
*374 U209
*375 U152
*376 U204
*377 n65
*378 U245
*379 n67
*380 U247
*381 n68
*382 U149
*383 n1350
*384 U64
*385 U246
*386 U172
*387 n234
*388 U240
*389 n237
*390 U244
*391 n66
*392 U137
*393 n233
*394 n62
*395 U242
*396 n223
*397 U206
*398 U130
*399 n63
*400 n18
*401 cruisectrl_reg
*402 n1340
*403 U54
*404 U241
*405 U173
*406 n127
*407 U174
*408 U140
*409 n109
*410 U138
*411 U131
*412 n81
*413 U203
*414 U153
*415 U1
*416 n103
*417 n770
*418 U201
*419 n229
*420 n224
*421 U205
*422 U136
*423 n54
*424 n50
*425 U139
*426 n51
*427 n55
*428 n47
*429 U223
*430 U217
*431 U214
*432 n1300
*433 U29
*434 n123
*435 n124
*436 n1470
*437 U47
*438 n60
*439 n61
*440 n1330
*441 U42
*442 n52
*443 n53
*444 n129
*445 U25
*446 n48
*447 n49
*448 n1280
*449 U18
*450 n580
*451 n59
*452 n1320
*453 U37
*454 n56
*455 n57
*456 n1310
*457 U32
*458 n121
*459 n122
*460 n1460
*461 U15
*462 n258
*463 U31
*464 U34
*465 U213
*466 n125
*467 n84
*468 n82
*469 n740
*470 n137
*471 U59
*472 n108
*473 n760
*474 U134
*475 n750
*476 n136
*477 U69
*478 n114
*479 n110
*480 U154
*481 U132
*482 n116
*483 n102
*484 n99
*485 n100
*486 n101
*487 n91
*488 n86
*489 n85
*490 N135
*491 n89
*492 U133
*493 n90
*494 n98
*495 U194
*496 n222
*497 U126
*498 U189
*499 U180
*500 n88
*501 n145
*502 U75
*503 n97
*504 n144
*505 U80
*506 N134
*507 n87
*508 n138
*509 U84
*510 N133
*511 n92
*512 n139
*513 U91
*514 N132
*515 n93
*516 n140
*517 U96
*518 N131
*519 n94
*520 n141
*521 U98
*522 N130
*523 n95
*524 n142
*525 U107
*526 n96
*527 n143
*528 U112
*529 n232
*530 n113
*531 n230
*532 n79
*533 n80
*534 n78
*535 n117
*536 n107
*537 U142
*538 n105
*539 n226
*540 n115
*541 n126
*542 n104
*543 n225
*544 n112
*545 U128
*546 n227
*547 n111
*548 INV_X1_G1B2I1
*549 n1
*550 clk_G1B8I1
*551 INV_X1_G1B1I1
*552 clk_G1B8I2
*553 INV_X1_G1B1I2
*554 clk_G1B8I3
*555 INV_X1_G1B1I3
*556 clk_G1B7I1
*557 n152
*558 U2
*559 n153
*560 U4
*561 U3
*562 n164
*563 n165
*564 U5
*565 n166
*566 U6
*567 n167
*568 U7
*569 n168
*570 U8
*571 n169
*572 U9
*573 n170
*574 U10
*575 n189
*576 U11
*577 n190
*578 U16
*579 U12
*580 n235
*581 U14
*582 U13
*583 n238
*584 n239
*585 n240
*586 n241
*587 U21
*588 U17
*589 n242
*590 U19
*591 n243
*592 U20
*593 n244
*594 n245
*595 n246
*596 U24
*597 U22
*598 n247
*599 U23
*600 n248
*601 n249
*602 n250
*603 U28
*604 U26
*605 n251
*606 U27
*607 n252
*608 n253
*609 U30
*610 n254
*611 n255
*612 U35
*613 n256
*614 U33
*615 n257
*616 n259
*617 n260
*618 U40
*619 U36
*620 n261
*621 U38
*622 n262
*623 U39
*624 n263
*625 n264
*626 n265
*627 U45
*628 U41
*629 n266
*630 U43
*631 n267
*632 U44
*633 n268
*634 n269
*635 n270
*636 U50
*637 U46
*638 n271
*639 U48
*640 n272
*641 U49
*642 n273
*643 n274
*644 n275
*645 U53
*646 U51
*647 n276
*648 U52
*649 n277
*650 n278
*651 U55
*652 n279
*653 n280
*654 U58
*655 U56
*656 n281
*657 U57
*658 n282
*659 n283
*660 U60
*661 n284
*662 n285
*663 U114
*664 U61
*665 n286
*666 U63
*667 U62
*668 n287
*669 U65
*670 n288
*671 n289
*672 n290
*673 U68
*674 U66
*675 n291
*676 U67
*677 n292
*678 n293
*679 U70
*680 n294
*681 n295
*682 U72
*683 U71
*684 n296
*685 n297
*686 U74
*687 n298
*688 n299
*689 U76
*690 n300
*691 n301
*692 U79
*693 U77
*694 n302
*695 U78
*696 n303
*697 n304
*698 U81
*699 n305
*700 n306
*701 U83
*702 U82
*703 n307
*704 n308
*705 U85
*706 n309
*707 n310
*708 U87
*709 n311
*710 n312
*711 U89
*712 U88
*713 n313
*714 U90
*715 n314
*716 U92
*717 n315
*718 n316
*719 n317
*720 U95
*721 U93
*722 n318
*723 U94
*724 n319
*725 n320
*726 U97
*727 n321
*728 n322
*729 U99
*730 n323
*731 U100
*732 n324
*733 U101
*734 n325
*735 n326
*736 U103
*737 n327
*738 n328
*739 U106
*740 U104
*741 n329
*742 U105
*743 n330
*744 n331
*745 U108
*746 n332
*747 n333
*748 U111
*749 U109
*750 n334
*751 U110
*752 n335
*753 n336
*754 U113
*755 n337
*756 n338

*PORTS
*1 O *L 0.0 *S 0.0 0.0
*2 O *L 0.0 *S 0.0 0.0
*3 O *L 0.0 *S 0.0 0.0
*4 O *L 0.0 *S 0.0 0.0
*5 O *L 0.0 *S 0.0 0.0
*6 O *L 0.0 *S 0.0 0.0
*7 O *L 0.0 *S 0.0 0.0
*8 O *L 0.0 *S 0.0 0.0
*9 O *L 0.0 *S 0.0 0.0
*10 O *L 0.0 *S 0.0 0.0
*11 I *L 0.0 *S 0.0 0.0
*12 I *L 0.0 *S 0.0 0.0
*13 O *L 0.0 *S 0.0 0.0
*14 O *L 0.0 *S 0.0 0.0
*15 O *L 0.0 *S 0.0 0.0
*16 O *L 0.0 *S 0.0 0.0
*17 O *L 0.0 *S 0.0 0.0
*18 O *L 0.0 *S 0.0 0.0
*19 O *L 0.0 *S 0.0 0.0
*20 I *L 0.0 *S 0.0 0.0
*21 I *L 0.0 *S 0.0 0.0
*22 I *L 0.0 *S 0.0 0.0
*23 I *L 0.0 *S 0.0 0.0
*24 I *L 0.0 *S 0.0 0.0
*25 I *L 0.0 *S 0.0 0.0
*26 I *L 0.0 *S 0.0 0.0

*D_NET *27 1.033692

*CONN
*I *28:A I *L 2188.621 *C 44.34 51.83
*I *29:CO O *L 0.0 *D HA_X1 *C 40.41 42.1
*N *27:3 *C 44.34 51.83
*N *27:4 *C 44.18 48.12
*N *27:5 *C 44.18 48.12
*N *27:6 *C 41.95 48.12
*N *27:7 *C 41.95 48.12
*N *27:8 *C 41.95 42.1
*N *27:9 *C 41.95 42.1
*N *27:10 *C 44.11 51.76

*CAP
1 *28:A 0.0
2 *29:CO 0.0787113
3 *27:3 0.01328204
4 *27:4 0.1252162
5 *27:5 0.1241504
6 *27:6 0.1746174
7 *27:7 0.1241504
8 *27:8 0.1746174
9 *27:9 0.07697383
10 *27:10 0.1419732

*RES
1 *27:3 *28:A 2.982249
2 *27:4 *27:5 2.982249
3 *27:6 *27:7 2.982249
4 *27:8 *27:9 2.982249
5 *29:CO *27:9 9.573078
6 *27:7 *27:5 14.64462
7 *27:8 *27:6 21.01786
8 *27:4 *27:10 12.88393
9 *27:10 *27:3 0.4553571

*END

*D_NET *5 7.405075

*CONN
*I *28:B I *L 2339.773 *C 44.61 52.097
*I *30:A1 I *L 1573.208 *C 46.702 56.187
*I *31:A I *L 2188.621 *C 39.81 47.642
*I *32:A I *L 2172.764 *C 35.75 44.97
*I *33:Q O *L 0.0 *D DFF_X1 *C 56.175 68.695
*P *5 O *C 103.955 101.68
*N *5:7 *C 56.34 68.7
*N *5:8 *C 56.34 68.7
*N *5:9 *C 56.27 68.317
*N *5:10 *C 56.27 68.317
*N *5:11 *C 39.81 47.642
*N *5:12 *C 39.74 47.797
*N *5:13 *C 50.38 68.317
*N *5:14 *C 50.38 68.317
*N *5:15 *C 50.76 53.117
*N *5:16 *C 50.76 53.117
*N *5:17 *C 47.15 53.117
*N *5:18 *C 47.15 53.117
*N *5:19 *C 47.15 51.977
*N *5:20 *C 47.15 51.977
*N *5:21 *C 44.412 48.1
*N *5:22 *C 44.412 48.1
*N *5:23 *C 44.412 51.9
*N *5:24 *C 44.412 51.9
*N *5:25 *C 100.73 101.757
*N *5:26 *C 100.73 101.757
*N *5:27 *C 100.73 68.317
*N *5:28 *C 100.73 68.317
*N *5:29 *C 46.58 56.17
*N *5:30 *C 46.58 56.17
*N *5:31 *C 35.75 44.97
*N *5:32 *C 35.75 47.797
*N *5:33 *C 35.75 47.797
*N *5:34 *C 44.61 52.097
*N *5:35 *C 44.757 51.9
*N *5:36 *C 44.757 51.9
*N *5:37 *C 46.58 53.04
*N *5:38 *C 50.38 53.72
*N *5:39 *C 50.76 53.72
*N *5:40 *C 39.55 47.72
*N *5:41 *C 39.55 48.1

*CAP
1 *28:B 0.0
2 *30:A1 0.01211963
3 *31:A 0.0
4 *32:A 0.01255938
5 *33:Q 0.01525151
6 *5 0.08671334
7 *5:7 0.02485752
8 *5:8 0.01351403
9 *5:9 1.325908
10 *5:10 0.0244368
11 *5:11 0.01696372
12 *5:12 0.03345819
13 *5:13 0.1655732
14 *5:14 0.3956269
15 *5:15 0.1098918
16 *5:16 0.0221704
17 *5:17 0.1098918
18 *5:18 0.04788801
19 *5:19 0.07404649
20 *5:20 0.03271626
21 *5:21 0.1081103
22 *5:22 0.1221973
23 *5:23 0.1081103
24 *5:24 0.01242897
25 *5:25 0.08455514
26 *5:26 0.865093
27 *5:27 1.158176
28 *5:28 0.865093
29 *5:29 0.1151973
30 *5:30 0.01038215
31 *5:31 0.1448013
32 *5:32 0.1391451
33 *5:33 0.1300838
34 *5:34 0.02226694
35 *5:35 0.0888367
36 *5:36 0.02184622
37 *5:37 0.1321066
38 *5:38 0.4105972
39 *5:39 0.03714069
40 *5:40 0.1692794
41 *5:41 0.1360402

*RES
1 *33:Q *5:8 1.607693
2 *5:7 *5:8 2.982249
3 *5:9 *5:10 2.5
4 *5:11 *31:A 2.982249
5 *5:12 *5:11 2.5
6 *5:13 *5:14 2.5
7 *5:15 *5:16 2.5
8 *5:17 *5:18 2.5
9 *5:19 *5:20 2.5
10 *5:21 *5:22 2.5
11 *5:23 *5:24 2.5
12 *5:25 *5:26 2.5
13 *5:27 *5:28 2.5
14 *30:A1 *5:30 0.2502439
15 *5:29 *5:30 2.982249
16 *5:31 *32:A 2.982249
17 *5:32 *5:33 2.5
18 *5:34 *28:B 2.982249
19 *5:35 *5:36 2.5
20 *5:31 *5:33 10.25893
21 *5:36 *5:34 0.2142857
22 *5:37 *5:29 11.79464
23 *5:37 *5:18 1.910714
24 *5:20 *5:18 3.330357
25 *5:38 *5:39 1.607143
26 *5:38 *5:14 52.53571
27 *5:16 *5:39 2.553571
28 *5:10 *5:7 1.651786
29 *5:28 *5:26 120.4821
30 *5:32 *5:40 13.32143
31 *5:40 *5:12 0.4285714
32 *5:40 *5:41 1.357143
33 *5:41 *5:22 17.76786
34 *5:24 *5:35 1.758929
35 *5:35 *5:19 8.419643
36 *5:17 *5:15 12.39286
37 *5:13 *5:9 20.78571
38 *5:9 *5:27 158.5357
39 *5:25 *5 11.14286
40 *5:21 *5:23 5.7

*END

*D_NET *34 0.8112878

*CONN
*I *28:Z O *L 0.0 *D XOR2_X1 *C 44.405 51.45
*I *35:A1 I *L 1525.232 *C 36.567 50.587
*N *34:3 *C 43.85 51.62
*N *34:4 *C 43.85 51.62
*N *34:5 *C 43.66 50.5
*N *34:6 *C 43.66 50.5
*N *34:7 *C 43.73 51.2
*N *34:8 *C 43.92 51.2

*CAP
1 *28:Z 0.0160629
2 *35:A1 0.3375543
3 *34:3 0.01863479
4 *34:4 0.01432542
5 *34:5 0.02753673
6 *34:6 0.3358168
7 *34:7 0.03512939
8 *34:8 0.02622745

*RES
1 *28:Z *34:4 1.607693
2 *34:3 *34:4 2.982249
3 *34:5 *34:6 2.982249
4 *35:A1 *34:6 41.84385
5 *34:5 *34:7 2.383929
6 *34:7 *34:8 0.6785714
7 *34:8 *34:3 1.133929

*END

*D_NET *2 6.425395

*CONN
*I *36:A I *L 1571.473 *C 61.892 29.412
*I *37:B I *L 3302.227 *C 60.242 25.086
*I *38:A2 I *L 1534.161 *C 83.562 37.812
*I *39:A1 I *L 1511.832 *C 89.777 37.812
*I *40:A2 I *L 1534.161 *C 59.96 21.03
*I *41:B1 I *L 1500.566 *C 65.847 31.004
*I *42:Q O *L 0.0 *D DFF_X1 *C 86.195 15.495
*P *2 O *C 102.82 0.035
*N *2:9 *C 60.07 29.177
*N *2:10 *C 60.07 29.177
*N *2:11 *C 61.857 29.1
*N *2:12 *C 61.857 29.1
*N *2:13 *C 59.96 21.03
*N *2:14 *C 60.242 25.086
*N *2:15 *C 89.97 37.76
*N *2:16 *C 89.97 37.76
*N *2:17 *C 89.83 36.64
*N *2:18 *C 89.83 36.64
*N *2:19 *C 81.28 36.64
*N *2:20 *C 81.28 36.64
*N *2:21 *C 81.28 37.76
*N *2:22 *C 81.28 37.76
*N *2:23 *C 65.847 31.004
*N *2:24 *C 81.47 15.78
*N *2:25 *C 81.47 15.78
*N *2:26 *C 65.887 31.0
*N *2:27 *C 61.78 32.597
*N *2:28 *C 61.78 32.597
*N *2:29 *C 102.82 15.117
*N *2:30 *C 102.82 15.117
*N *2:31 *C 86.1 15.117
*N *2:32 *C 86.1 15.117
*N *2:33 *C 86.1 15.85
*N *2:34 *C 86.1 15.85
*N *2:35 *C 81.35 32.597
*N *2:36 *C 81.35 32.597
*N *2:37 *C 61.842 29.567
*N *2:38 *C 61.842 29.567
*N *2:39 *C 59.88 25.16
*N *2:40 *C 60.07 25.086
*N *2:41 *C 81.54 32.52
*N *2:42 *C 65.96 32.52
*N *2:43 *C 65.96 31.017

*CAP
1 *36:A 0.01377093
2 *37:B 0.0
3 *38:A2 0.1018255
4 *39:A1 0.01420763
5 *40:A2 0.0
6 *41:B1 0.0
7 *42:Q 0.01143631
8 *2 0.3895776
9 *2:9 0.07234582
10 *2:10 0.1016832
11 *2:11 0.07234582
12 *2:12 0.0246336
13 *2:13 0.1134452
14 *2:14 0.009829449
15 *2:15 0.04675063
16 *2:16 0.01247015
17 *2:17 0.04675063
18 *2:18 0.3579958
19 *2:19 0.1560249
20 *2:20 0.3579958
21 *2:21 0.0461793
22 *2:22 0.100088
23 *2:23 0.01637027
24 *2:24 0.4366014
25 *2:25 0.2026624
26 *2:26 0.02186338
27 *2:27 0.1132686
28 *2:28 0.1154845
29 *2:29 0.4279282
30 *2:30 0.3874194
31 *2:31 0.4279282
32 *2:32 0.03570138
33 *2:33 0.03612209
34 *2:34 0.2140987
35 *2:35 0.3899034
36 *2:36 0.1139442
37 *2:37 0.142697
38 *2:38 0.01203345
39 *2:39 0.1199612
40 *2:40 0.1201868
41 *2:41 0.4445957
42 *2:42 0.5496314
43 *2:43 0.04763614

*RES
1 *2:9 *2:10 2.5
2 *2:11 *2:12 2.5
3 *2:13 *40:A2 2.982249
4 *2:14 *37:B 2.982249
5 *39:A1 *2:16 1.607692
6 *2:15 *2:16 2.982249
7 *2:17 *2:18 2.982249
8 *2:19 *2:20 2.982249
9 *2:21 *2:22 2.982249
10 *2:23 *41:B1 5.964498
11 *2:24 *2:25 2.982249
12 *2:26 *2:23 5.0
13 *2:27 *2:28 2.5
14 *2:29 *2:30 2.5
15 *2:31 *2:32 2.5
16 *42:Q *2:34 0.5770371
17 *2:33 *2:34 2.982249
18 *2:35 *2:36 2.5
19 *36:A *2:38 0.577037
20 *2:37 *2:38 2.982249
21 *2:20 *2:18 51.59231
22 *2:22 *38:A2 13.78231
23 *2:25 *2:34 27.47692
24 *2:13 *2:39 14.50893
25 *2:39 *2:40 0.5535715
26 *2:40 *2:14 0.5092593
27 *2:40 *2:10 14.875
28 *2:12 *2:37 1.419643
29 *2:37 *2:28 11.34822
30 *2:36 *2:41 0.6785714
31 *2:36 *2:19 14.23679
32 *2:19 *2:21 3.758929
33 *2:24 *2:41 59.41965
34 *2:32 *2:33 3.633929
35 *2:17 *2:15 3.517857
36 *2 *2:30 54.26786
37 *2:9 *2:11 6.660715
38 *2:27 *2:42 14.67857
39 *2:42 *2:35 54.71428
40 *2:26 *2:43 0.3392857
41 *2:43 *2:42 5.053571
42 *2:31 *2:29 59.21429

*END

*D_NET *43 0.3749617

*CONN
*I *36:ZN O *L 0.0 *D INV_X1 *C 62.057 29.5
*I *41:A1 I *L 1525.232 *C 65.04 30.9
*N *43:3 *C 62.23 29.92
*N *43:4 *C 62.23 29.92
*N *43:5 *C 62.16 30.697
*N *43:6 *C 62.16 30.697
*N *43:7 *C 65.187 30.62
*N *43:8 *C 65.187 30.62
*N *43:9 *C 65.04 30.9

*CAP
1 *36:ZN 0.01497245
2 *41:A1 0.01635091
3 *43:3 0.03729896
4 *43:4 0.01323497
5 *43:5 0.09373622
6 *43:6 0.03687825
7 *43:7 0.09373622
8 *43:8 0.02512232
9 *43:9 0.04363143

*RES
1 *36:ZN *43:4 1.607693
2 *43:3 *43:4 2.982249
3 *43:5 *43:6 2.5
4 *43:7 *43:8 2.5
5 *43:9 *41:A1 2.982249
6 *43:3 *43:6 3.0625
7 *43:8 *43:9 0.5089285
8 *43:5 *43:7 11.08929

*END

*D_NET *1 5.041944

*CONN
*I *37:A I *L 3089.774 *C 60.64 25.37
*I *44:A3 I *L 896.703 *C 49.102 30.97
*I *40:A1 I *L 1573.208 *C 59.622 21.012
*I *45:A2 I *L 882.615 *C 55.556 25.37
*I *46:B I *L 2478.723 *C 65.27 21.24
*I *47:Q O *L 0.0 *D DFF_X1 *C 80.685 16.905
*P *1 O *C 85.91 0.035
*N *1:8 *C 59.43 20.96
*N *1:9 *C 59.43 20.96
*N *1:10 *C 59.577 21.12
*N *1:11 *C 59.577 21.12
*N *1:12 *C 65.27 21.24
*N *1:13 *C 65.2 21.197
*N *1:14 *C 55.556 25.37
*N *1:15 *C 56.27 25.377
*N *1:16 *C 56.27 25.377
*N *1:17 *C 56.34 20.96
*N *1:18 *C 56.34 20.96
*N *1:19 *C 80.78 16.55
*N *1:20 *C 80.78 16.55
*N *1:21 *C 80.78 20.817
*N *1:22 *C 80.78 20.817
*N *1:23 *C 55.32 25.377
*N *1:24 *C 55.32 25.377
*N *1:25 *C 49.102 30.97
*N *1:26 *C 49.89 31.255
*N *1:27 *C 49.89 31.255
*N *1:28 *C 55.25 31.32
*N *1:29 *C 55.25 31.32
*N *1:30 *C 85.84 16.62
*N *1:31 *C 85.84 16.62
*N *1:32 *C 60.64 25.37
*N *1:33 *C 60.64 25.3
*N *1:34 *C 81.16 16.48
*N *1:35 *C 81.16 16.62
*N *1:36 *C 49.102 31.32
*N *1:37 *C 55.556 25.3
*N *1:38 *C 77.55 21.12
*N *1:39 *C 77.55 20.74

*CAP
1 *37:A 0.0
2 *44:A3 0.0
3 *40:A1 0.01113413
4 *45:A2 0.0
5 *46:B 0.0
6 *47:Q 0.01087518
7 *1 0.4420597
8 *1:8 0.02227622
9 *1:9 0.156162
10 *1:10 0.1502227
11 *1:11 0.0218555
12 *1:12 0.0111395
13 *1:13 0.4917872
14 *1:14 0.01067363
15 *1:15 0.1848932
16 *1:16 0.156819
17 *1:17 0.1572397
18 *1:18 0.1450279
19 *1:19 0.1202833
20 *1:20 0.04307249
21 *1:21 0.08527861
22 *1:22 0.1198625
23 *1:23 0.0384342
24 *1:24 0.2012668
25 *1:25 0.01606337
26 *1:26 0.02758724
27 *1:27 0.329659
28 *1:28 0.1969517
29 *1:29 0.329659
30 *1:30 0.4403222
31 *1:31 0.203988
32 *1:32 0.01549627
33 *1:33 0.1619553
34 *1:34 0.03930785
35 *1:35 0.2110986
36 *1:36 0.04712557
37 *1:37 0.007675326
38 *1:38 0.3377602
39 *1:39 0.09693012

*RES
1 *40:A1 *1:9 1.607692
2 *1:8 *1:9 2.982249
3 *1:10 *1:11 2.5
4 *1:12 *46:B 2.982249
5 *1:13 *1:12 2.5
6 *1:14 *45:A2 2.982249
7 *1:15 *1:16 2.5
8 *1:17 *1:18 2.982249
9 *47:Q *1:20 0.5770371
10 *1:19 *1:20 2.982249
11 *1:21 *1:22 2.5
12 *1:23 *1:24 2.5
13 *1:25 *44:A3 2.982249
14 *1:26 *1:27 2.982249
15 *1:28 *1:29 2.982249
16 *1:30 *1:31 2.982249
17 *1:32 *37:A 2.982249
18 *1:33 *1:32 2.5
19 *1:27 *1:29 32.94308
20 *1:18 *1:9 19.67231
21 *1:20 *1:34 2.016924
22 *1:34 *1:35 0.8184617
23 *1:35 *1:31 27.97385
24 *1:25 *1:36 1.008929
25 *1:36 *1:26 2.323215
26 *1:24 *1:14 0.5946429
27 *1:14 *1:37 0.125
28 *1:24 *1:28 20.84393
29 *1:17 *1:16 16.0625
30 *1:8 *1:11 0.1369047
31 *1:19 *1:22 16.25893
32 *1 *1:30 58.86608
33 *1:23 *1:15 3.267857
34 *1:15 *1:33 16.13393
35 *1:10 *1:13 19.67857
36 *1:13 *1:38 44.23215
37 *1:39 *1:38 1.357143
38 *1:39 *1:21 11.16071

*END

*D_NET *48 0.7079853

*CONN
*I *37:CO O *L 0.0 *D HA_X1 *C 59.21 25.3
*I *49:B I *L 3302.227 *C 54.87 21.33
*N *48:3 *C 58.92 24.95
*N *48:4 *C 58.92 24.95
*N *48:5 *C 58.86 22.36
*N *48:6 *C 58.86 22.36
*N *48:7 *C 54.87 22.36
*N *48:8 *C 54.87 22.36
*N *48:9 *C 54.87 21.33
*N *48:10 *C 58.925 24.915

*CAP
1 *37:CO 0.0277167
2 *49:B 0.0
3 *48:3 0.1050134
4 *48:4 0.02597922
5 *48:5 0.09715043
6 *48:6 0.1766997
7 *48:7 0.04543158
8 *48:8 0.1766997
9 *48:9 0.04543158
10 *48:10 0.007863021

*RES
1 *48:3 *48:4 2.982249
2 *48:5 *48:6 2.982249
3 *48:7 *48:8 2.982249
4 *48:9 *49:B 2.982249
5 *48:8 *48:6 24.93385
6 *48:4 *37:CO 1.066923
7 *48:9 *48:7 3.196429
8 *48:3 *48:10 0.05072464
9 *48:5 *48:3 8.580357

*END

*D_NET *50 0.5415722

*CONN
*I *37:S O *L 0.0 *D HA_X1 *C 60.577 25.72
*I *51:A1 I *L 1525.232 *C 57.767 29.36
*N *50:3 *C 60.577 25.72
*N *50:4 *C 60.507 25.757
*N *50:5 *C 58.36 25.757
*N *50:6 *C 58.36 25.757
*N *50:7 *C 58.36 29.177
*N *50:8 *C 58.36 29.177
*N *50:9 *C 57.775 29.1
*N *50:10 *C 57.775 29.1
*N *50:11 *C 57.767 29.36

*CAP
1 *37:S 0.0
2 *51:A1 0.01786358
3 *50:3 0.01314535
4 *50:4 0.09003025
5 *50:5 0.07472671
6 *50:6 0.104539
7 *50:7 0.03026459
8 *50:8 0.104539
9 *50:9 0.03026459
10 *50:10 0.02808865
11 *50:11 0.04811043

*RES
1 *50:3 *37:S 2.982249
2 *50:4 *50:3 2.5
3 *50:5 *50:6 2.5
4 *50:7 *50:8 2.5
5 *50:9 *50:10 2.5
6 *50:11 *51:A1 2.982249
7 *50:10 *50:11 0.4375
8 *50:6 *50:8 13.26786
9 *50:9 *50:7 2.366071
10 *50:5 *50:4 7.169643

*END

*D_NET *10 4.718438

*CONN
*I *49:A I *L 3089.774 *C 55.13 21.03
*I *44:A2 I *L 883.024 *C 49.337 30.97
*I *52:A2 I *L 1534.161 *C 52.592 33.787
*I *45:A1 I *L 867.901 *C 55.767 25.387
*I *46:A I *L 2172.764 *C 65.01 21.03
*I *53:Q O *L 0.0 *D DFF_X1 *C 78.215 25.305
*P *10 O *C 69.0 0.035
*N *10:8 *C 65.01 21.03
*N *10:9 *C 65.087 24.92
*N *10:10 *C 65.087 24.92
*N *10:11 *C 55.13 21.03
*N *10:12 *C 55.13 21.12
*N *10:13 *C 56.08 21.197
*N *10:14 *C 56.08 21.197
*N *10:15 *C 56.01 25.44
*N *10:16 *C 56.01 25.44
*N *10:17 *C 77.86 24.945
*N *10:18 *C 77.86 24.945
*N *10:19 *C 77.93 24.842
*N *10:20 *C 53.307 32.52
*N *10:21 *C 53.307 32.52
*N *10:22 *C 52.47 33.77
*N *10:23 *C 52.47 33.77
*N *10:24 *C 49.337 30.97
*N *10:25 *C 49.337 31.077
*N *10:26 *C 51.14 31.077
*N *10:27 *C 51.14 31.077
*N *10:28 *C 51.14 32.597
*N *10:29 *C 51.14 32.597
*N *10:30 *C 56.08 24.997
*N *10:31 *C 56.08 24.997
*N *10:32 *C 58.74 24.997
*N *10:33 *C 58.74 24.997
*N *10:34 *C 58.74 32.217
*N *10:35 *C 58.74 32.217
*N *10:36 *C 56.84 32.217
*N *10:37 *C 56.84 32.217
*N *10:38 *C 56.762 32.52
*N *10:39 *C 56.762 32.52
*N *10:40 *C 69.0 24.997
*N *10:41 *C 69.0 24.997
*N *10:42 *C 52.47 32.72
*N *10:43 *C 53.23 32.72

*CAP
1 *49:A 0.0
2 *44:A2 0.0
3 *52:A2 0.01266066
4 *45:A1 0.01556793
5 *46:A 0.01407967
6 *53:Q 0.02285649
7 *10 0.6604154
8 *10:8 0.140501
9 *10:9 0.2684002
10 *10:10 0.1242631
11 *10:11 0.01554026
12 *10:12 0.05386644
13 *10:13 0.03616799
14 *10:14 0.136948
15 *10:15 0.02173179
16 *10:16 0.01383045
17 *10:17 0.0179009
18 *10:18 0.02111902
19 *10:19 0.2573696
20 *10:20 0.1520878
21 *10:21 0.01324643
22 *10:22 0.03385148
23 *10:23 0.01092318
24 *10:24 0.01446295
25 *10:25 0.08570617
26 *10:26 0.06908504
27 *10:27 0.06671961
28 *10:28 0.06507229
29 *10:29 0.06671961
30 *10:30 0.0794981
31 *10:31 0.1604173
32 *10:32 0.2532218
33 *10:33 0.2311592
34 *10:34 0.06003432
35 *10:35 0.2311592
36 *10:36 0.06003432
37 *10:37 0.02620453
38 *10:38 0.08485733
39 *10:39 0.02620453
40 *10:40 0.3341452
41 *10:41 0.6582572
42 *10:42 0.06116802
43 *10:43 0.0409837

*RES
1 *10:8 *46:A 2.982249
2 *10:9 *10:10 2.5
3 *10:11 *49:A 2.982249
4 *10:12 *10:11 2.5
5 *10:13 *10:14 2.5
6 *10:15 *10:16 2.982249
7 *10:17 *10:18 2.982249
8 *10:19 *10:17 2.5
9 *10:20 *10:21 2.5
10 *52:A2 *10:23 0.2502439
11 *10:22 *10:23 2.982249
12 *10:24 *44:A2 2.982249
13 *10:25 *10:24 2.5
14 *10:26 *10:27 2.5
15 *10:28 *10:29 2.5
16 *10:30 *10:31 2.5
17 *10:32 *10:33 2.5
18 *10:34 *10:35 2.5
19 *10:36 *10:37 2.5
20 *10:38 *10:39 2.5
21 *10:40 *10:41 2.5
22 *45:A1 *10:16 1.856154
23 *10:18 *53:Q 2.674615
24 *10:27 *10:29 6.482143
25 *10:42 *10:43 2.964286
26 *10:42 *10:22 4.116071
27 *10:21 *10:43 0.3392857
28 *10:14 *10:31 13.16964
29 *10:31 *10:15 1.339286
30 *10:37 *10:39 1.482143
31 *10:33 *10:35 26.83929
32 *10:8 *10:10 14.13393
33 *10 *10:41 89.55358
34 *10:25 *10:26 6.0625
35 *10:28 *10:20 7.491071
36 *10:20 *10:38 11.9375
37 *10:12 *10:13 3.794643
38 *10:30 *10:32 9.249999
39 *10:32 *10:9 22.66964
40 *10:9 *10:40 13.97321
41 *10:40 *10:19 31.76786
42 *10:36 *10:34 6.285715

*END

*D_NET *54 0.721351

*CONN
*I *49:CO O *L 0.0 *D HA_X1 *C 53.7 21.1
*I *55:B I *L 3302.227 *C 45.76 25.107
*N *54:3 *C 52.78 21.52
*N *54:4 *C 52.78 21.52
*N *54:5 *C 52.85 24.997
*N *54:6 *C 52.85 24.997
*N *54:7 *C 46.05 24.92
*N *54:8 *C 46.05 24.92
*N *54:9 *C 45.76 25.107
*N *54:10 *C 45.972 25.14

*CAP
1 *49:CO 0.04805949
2 *55:B 0.0
3 *54:3 0.1028153
4 *54:4 0.04632201
5 *54:5 0.1814104
6 *54:6 0.1023946
7 *54:7 0.1814104
8 *54:8 0.014171
9 *54:9 0.01335057
10 *54:10 0.03141724

*RES
1 *54:3 *54:4 2.982249
2 *54:5 *54:6 2.5
3 *54:7 *54:8 2.5
4 *54:9 *55:B 2.982249
5 *54:4 *49:CO 5.948462
6 *54:9 *54:10 0.5178571
7 *54:8 *54:10 0.4107143
8 *54:3 *54:6 12.70536
9 *54:7 *54:5 24.5625

*END

*D_NET *56 1.414968

*CONN
*I *49:S O *L 0.0 *D HA_X1 *C 55.295 21.43
*I *57:A1 I *L 1525.232 *C 60.202 33.787
*N *56:3 *C 55.63 21.1
*N *56:4 *C 55.63 21.1
*N *56:5 *C 55.7 32.217
*N *56:6 *C 55.7 32.217
*N *56:7 *C 56.08 32.217
*N *56:8 *C 56.08 32.217
*N *56:9 *C 56.08 32.977
*N *56:10 *C 56.08 32.977
*N *56:11 *C 57.03 32.977
*N *56:12 *C 57.03 32.977
*N *56:13 *C 57.1 32.632
*N *56:14 *C 57.1 32.632
*N *56:15 *C 60.0 32.58
*N *56:16 *C 60.0 32.58
*N *56:17 *C 60.07 33.7
*N *56:18 *C 60.07 33.7

*CAP
1 *49:S 0.02141178
2 *57:A1 0.01245168
3 *56:3 0.3599827
4 *56:4 0.0196743
5 *56:5 0.03003376
6 *56:6 0.3595619
7 *56:7 0.03003376
8 *56:8 0.0346262
9 *56:9 0.04481299
10 *56:10 0.0346262
11 *56:11 0.04481299
12 *56:12 0.02221777
13 *56:13 0.02263849
14 *56:14 0.1345306
15 *56:15 0.04915433
16 *56:16 0.1345306
17 *56:17 0.04915433
18 *56:18 0.0107142

*RES
1 *56:3 *56:4 2.982249
2 *56:5 *56:6 2.5
3 *56:7 *56:8 2.5
4 *56:9 *56:10 2.5
5 *56:11 *56:12 2.5
6 *56:13 *56:14 2.982249
7 *56:15 *56:16 2.982249
8 *57:A1 *56:18 0.2502439
9 *56:17 *56:18 2.982249
10 *49:S *56:4 2.046154
11 *56:14 *56:16 18.56154
12 *56:3 *56:6 39.99107
13 *56:8 *56:10 3.767857
14 *56:13 *56:12 1.517857
15 *56:15 *56:17 4.25
16 *56:5 *56:7 0.857143
17 *56:9 *56:11 2.892857

*END

*D_NET *9 6.530056

*CONN
*I *55:A I *L 3089.774 *C 45.82 25.37
*I *58:A2 I *L 1534.161 *C 70.642 33.787
*I *59:A1 I *L 1511.832 *C 72.352 33.787
*I *44:A1 I *L 844.838 *C 49.497 30.987
*I *60:A2 I *L 1534.161 *C 45.942 29.412
*I *61:A1 I *L 867.901 *C 47.885 20.925
*I *62:A I *L 2172.764 *C 50.12 20.82
*I *63:Q O *L 0.0 *D DFF_X1 *C 52.78 37.48
*P *9 O *C 51.9 0.035
*N *9:10 *C 52.012 20.74
*N *9:11 *C 52.012 20.74
*N *9:12 *C 45.82 25.37
*N *9:13 *C 70.45 33.84
*N *9:14 *C 70.45 33.84
*N *9:15 *C 47.885 20.925
*N *9:16 *C 47.815 20.817
*N *9:17 *C 49.69 31.04
*N *9:18 *C 49.69 31.04
*N *9:19 *C 49.62 30.697
*N *9:20 *C 49.62 30.697
*N *9:21 *C 45.82 30.697
*N *9:22 *C 45.82 30.697
*N *9:23 *C 52.012 30.62
*N *9:24 *C 52.012 30.62
*N *9:25 *C 52.012 37.46
*N *9:26 *C 52.012 37.46
*N *9:27 *C 52.85 37.537
*N *9:28 *C 52.85 37.537
*N *9:29 *C 70.45 47.7
*N *9:30 *C 70.45 47.7
*N *9:31 *C 52.97 47.7
*N *9:32 *C 52.97 47.7
*N *9:33 *C 50.12 20.82
*N *9:34 *C 50.19 20.817
*N *9:35 *C 72.16 33.84
*N *9:36 *C 72.16 33.84
*N *9:37 *C 72.23 34.117
*N *9:38 *C 72.23 34.117
*N *9:39 *C 70.52 34.117
*N *9:40 *C 70.52 34.117
*N *9:41 *C 52.78 37.48
*N *9:42 *C 51.9 5.997
*N *9:43 *C 51.9 5.997
*N *9:44 *C 52.012 5.92
*N *9:45 *C 45.75 29.36
*N *9:46 *C 45.75 29.36
*N *9:47 *C 53.04 37.46

*CAP
1 *55:A 0.0
2 *58:A2 0.01438314
3 *59:A1 0.01453132
4 *44:A1 0.01495836
5 *60:A2 0.01357913
6 *61:A1 0.01848833
7 *62:A 0.0
8 *63:Q 0.01548529
9 *9 0.1571883
10 *9:10 0.5763253
11 *9:11 0.05692494
12 *9:12 0.1268115
13 *9:13 0.01414762
14 *9:14 0.01264567
15 *9:15 0.03354973
16 *9:16 0.08048465
17 *9:17 0.02306422
18 *9:18 0.01322088
19 *9:19 0.180082
20 *9:20 0.0226435
21 *9:21 0.1047556
22 *9:22 0.05007815
23 *9:23 0.4072837
24 *9:24 0.07296521
25 *9:25 0.1739456
26 *9:26 0.03719456
27 *9:27 0.03739761
28 *9:28 0.0
29 *9:29 0.3704459
30 *9:30 0.9315205
31 *9:31 0.2785304
32 *9:32 0.9315205
33 *9:33 0.008442738
34 *9:34 0.1348896
35 *9:35 0.02108555
36 *9:36 0.01279384
37 *9:37 0.06895913
38 *9:38 0.02066484
39 *9:39 0.06895913
40 *9:40 0.3859102
41 *9:41 0.02163513
42 *9:42 0.01323812
43 *9:43 0.1550301
44 *9:44 0.3585866
45 *9:45 0.1790478
46 *9:46 0.01184165
47 *9:47 0.2848195

*RES
1 *9:10 *9:11 2.5
2 *9:12 *55:A 2.982249
3 *58:A2 *9:14 1.607692
4 *9:13 *9:14 2.982249
5 *9:15 *61:A1 2.982249
6 *9:16 *9:15 2.5
7 *44:A1 *9:18 1.607692
8 *9:17 *9:18 2.982249
9 *9:19 *9:20 2.5
10 *9:21 *9:22 2.5
11 *9:23 *9:24 2.5
12 *9:25 *9:26 2.5
13 *9:27 *9:28 2.5
14 *9:29 *9:30 2.982249
15 *9:31 *9:32 2.982249
16 *9:33 *62:A 2.982249
17 *9:34 *9:33 2.5
18 *59:A1 *9:36 1.607693
19 *9:35 *9:36 2.982249
20 *9:37 *9:38 2.5
21 *9:39 *9:40 2.5
22 *9:41 *63:Q 2.982249
23 *9:42 *9:43 2.5
24 *9:44 *9:42 2.5
25 *60:A2 *9:46 1.607692
26 *9:45 *9:46 2.982249
27 *9:32 *9:30 103.7985
28 *9:12 *9:45 13.88393
29 *9:45 *9:22 5.303572
30 *9:20 *9:17 1.508929
31 *9 *9:43 21.69643
32 *9:41 *9:28 0.004285714
33 *9:41 *9:47 0.5625001
34 *9:47 *9:31 36.20536
35 *9:13 *9:40 0.75
36 *9:40 *9:29 48.26786
37 *9:35 *9:38 1.276786
38 *9:21 *9:19 13.32143
39 *9:19 *9:24 9.071428
40 *9:16 *9:34 8.232142
41 *9:34 *9:11 7.035715
42 *9:26 *9:27 3.267857
43 *9:39 *9:37 5.607142
44 *9:44 *9:10 22.23
45 *9:10 *9:23 14.82
46 *9:23 *9:25 10.26

*END

*D_NET *64 0.3708893

*CONN
*I *55:CO O *L 0.0 *D HA_X1 *C 44.39 25.3
*I *65:B I *L 3302.227 *C 39.87 25.09
*N *64:3 *C 44.23 25.3
*N *64:4 *C 44.23 25.3
*N *64:5 *C 44.3 25.377
*N *64:6 *C 39.947 25.16
*N *64:7 *C 39.947 25.16
*N *64:8 *C 39.87 25.3

*CAP
1 *55:CO 0.01679989
2 *65:B 0.01581855
3 *64:3 0.01397803
4 *64:4 0.01506241
5 *64:5 0.1403056
6 *64:6 0.01231021
7 *64:7 0.01581855
8 *64:8 0.140796

*RES
1 *55:CO *64:4 1.607693
2 *64:3 *64:4 2.982249
3 *64:5 *64:3 2.5
4 *64:6 *64:7 2.5
5 *64:7 *65:B 2.982249
6 *64:6 *64:8 0.5
7 *64:8 *64:5 15.44643

*END

*D_NET *66 0.5162007

*CONN
*I *55:S O *L 0.0 *D HA_X1 *C 46.08 25.58
*I *67:A1 I *L 1525.232 *C 49.942 26.612
*N *66:3 *C 46.08 25.58
*N *66:4 *C 46.13 26.56
*N *66:5 *C 46.13 26.56
*N *66:6 *C 46.173 25.72

*CAP
1 *55:S 0.0173019
2 *67:A1 0.1938635
3 *66:3 0.03039305
4 *66:4 0.0338438
5 *66:5 0.192126