* Nettran: AMD.64 Release B-2008.09.SP5.26004 2012/07/19
* Created:  12/20/2017   8:49
* Options: -rootCell cruisecontrol -verilog-b0 VSS -verilog-b1 VDD -sp /home/standard_cell_libraries/NangateOpenCellLibrary_PDKv1_3_v2010_12/lib/Back_End/spice/NangateOpenCellLibrary.spi -verilog ../../../pnr/output/cruisecontrol_icc.v -outType spice -outName cruisecontrl.sp 

.GLOBAL VDD VSS 

.SUBCKT TAP VDD VSS 
.ENDS

.SUBCKT XOR2_X2 A B Z VDD VSS 
M_i_41_29 net_003 net_000 VDD VDD PMOS_VTL L=0.050000U W=0.630000U 
M_i_47_27 Z A net_003 VDD PMOS_VTL L=0.050000U W=0.630000U 
M_i_53_18 net_003 B Z VDD PMOS_VTL L=0.050000U W=0.630000U 
M_i_53 net_003 B Z VDD PMOS_VTL L=0.050000U W=0.630000U 
M_i_47 Z A net_003 VDD PMOS_VTL L=0.050000U W=0.630000U 
M_i_41 net_003 net_000 VDD VDD PMOS_VTL L=0.050000U W=0.630000U 
M_i_35 VDD B net_002 VDD PMOS_VTL L=0.050000U W=0.630000U 
M_i_30 net_002 A net_000 VDD PMOS_VTL L=0.050000U W=0.630000U 
M_i_13_35 Z net_000 VSS VSS NMOS_VTL L=0.050000U W=0.415000U 
M_i_19_23 net_001b A Z VSS NMOS_VTL L=0.050000U W=0.415000U 
M_i_24_4 VSS B net_001b VSS NMOS_VTL L=0.050000U W=0.415000U 
M_i_24 VSS B net_001 VSS NMOS_VTL L=0.050000U W=0.415000U 
M_i_19 net_001 A Z VSS NMOS_VTL L=0.050000U W=0.415000U 
M_i_13 Z net_000 VSS VSS NMOS_VTL L=0.050000U W=0.415000U 
M_i_7 VSS B net_000 VSS NMOS_VTL L=0.050000U W=0.415000U 
M_i_0 net_000 A VSS VSS NMOS_VTL L=0.050000U W=0.415000U 
.ENDS

.SUBCKT XNOR2_X2 A B ZN VDD VSS 
M_i_53 VDD B net_003 VDD PMOS_VTL L=0.050000U W=0.630000U 
M_i_53_25 VDD B net_003b VDD PMOS_VTL L=0.050000U W=0.630000U 
M_i_48_8 net_003b A ZN VDD PMOS_VTL L=0.050000U W=0.630000U 
M_i_48 net_003 A ZN VDD PMOS_VTL L=0.050000U W=0.630000U 
M_i_29 net_000 A VDD VDD PMOS_VTL L=0.050000U W=0.630000U 
M_i_36 VDD B net_000 VDD PMOS_VTL L=0.050000U W=0.630000U 
M_i_42 ZN net_000 VDD VDD PMOS_VTL L=0.050000U W=0.630000U 
M_i_42_14 ZN net_000 VDD VDD PMOS_VTL L=0.050000U W=0.630000U 
M_i_23 net_002 B ZN VSS NMOS_VTL L=0.050000U W=0.415000U 
M_i_23_12 net_002 B ZN VSS NMOS_VTL L=0.050000U W=0.415000U 
M_i_17 ZN A net_002 VSS NMOS_VTL L=0.050000U W=0.415000U 
M_i_17_20 ZN A net_002 VSS NMOS_VTL L=0.050000U W=0.415000U 
M_i_0 net_001 A net_000 VSS NMOS_VTL L=0.050000U W=0.415000U 
M_i_5 VSS B net_001 VSS NMOS_VTL L=0.050000U W=0.415000U 
M_i_11 net_002 net_000 VSS VSS NMOS_VTL L=0.050000U W=0.415000U 
M_i_11_23 net_002 net_000 VSS VSS NMOS_VTL L=0.050000U W=0.415000U 
.ENDS

.SUBCKT TLAT_X1 D G OE Q VDD VSS 
M_i_111 Q net_005 net_010 VDD PMOS_VTL L=0.050000U W=0.540000U 
M_i_106 net_010 net_003 VDD VDD PMOS_VTL L=0.050000U W=0.540000U 
M_i_91 net_005 OE VDD VDD PMOS_VTL L=0.050000U W=0.315000U 
M_i_99 VDD net_003 net_006 VDD PMOS_VTL L=0.050000U W=0.090000U 
M_i_85 VDD net_006 net_009 VDD PMOS_VTL L=0.050000U W=0.090000U 
M_i_81 net_009 net_001 net_003 VDD PMOS_VTL L=0.050000U W=0.090000U 
M_i_75 net_003 net_000 net_008 VDD PMOS_VTL L=0.050000U W=0.420000U 
M_i_70 net_008 D VDD VDD PMOS_VTL L=0.050000U W=0.420000U 
M_i_64 net_001 net_000 VDD VDD PMOS_VTL L=0.050000U W=0.315000U 
M_i_57 VDD G net_000 VDD PMOS_VTL L=0.050000U W=0.315000U 
M_i_51 Q OE net_007 VSS NMOS_VTL L=0.050000U W=0.355000U 
M_i_47 net_007 net_003 VSS VSS NMOS_VTL L=0.050000U W=0.355000U 
M_i_34 net_005 OE VSS VSS NMOS_VTL L=0.050000U W=0.210000U 
M_i_40 VSS net_003 net_006 VSS NMOS_VTL L=0.050000U W=0.090000U 
M_i_28 VSS net_006 net_004 VSS NMOS_VTL L=0.050000U W=0.090000U 
M_i_24 net_004 net_000 net_003 VSS NMOS_VTL L=0.050000U W=0.090000U 
M_i_18 net_003 net_001 net_002 VSS NMOS_VTL L=0.050000U W=0.275000U 
M_i_13 net_002 D VSS VSS NMOS_VTL L=0.050000U W=0.275000U 
M_i_7 net_001 net_000 VSS VSS NMOS_VTL L=0.050000U W=0.210000U 
M_i_0 VSS G net_000 VSS NMOS_VTL L=0.050000U W=0.210000U 
.ENDS

.SUBCKT TINV_X1 EN I ZN VDD VSS 
M_i_29 ZN EN net_002 VDD PMOS_VTL L=0.050000U W=0.540000U 
M_i_24 net_002 I VDD VDD PMOS_VTL L=0.050000U W=0.540000U 
M_i_17 VDD EN net_000 VDD PMOS_VTL L=0.050000U W=0.315000U 
M_i_11 ZN net_000 net_001 VSS NMOS_VTL L=0.050000U W=0.355000U 
M_i_7 net_001 I VSS VSS NMOS_VTL L=0.050000U W=0.355000U 
M_i_0 VSS EN net_000 VSS NMOS_VTL L=0.050000U W=0.210000U 
.ENDS

.SUBCKT TBUF_X8 A EN Z VDD VSS 
M_i_42 VDD EN NEN VDD PMOS_VTL L=0.050000U W=0.630000U 
M_i_24_1 dummy0 EN VDD VDD PMOS_VTL L=0.050000U W=0.630000U 
M_i_24_0 x A dummy0 VDD PMOS_VTL L=0.050000U W=0.630000U 
M_i_24_0_130 x A dummy0a VDD PMOS_VTL L=0.050000U W=0.630000U 
M_i_24_1_114 dummy0a EN VDD VDD PMOS_VTL L=0.050000U W=0.630000U 
M_i_24_1_48_94 y NEN VDD VDD PMOS_VTL L=0.050000U W=0.630000U 
M_i_24_0_64_92 VDD A y VDD PMOS_VTL L=0.050000U W=0.630000U 
M_i_24_0_64 VDD A y VDD PMOS_VTL L=0.050000U W=0.630000U 
M_i_24_1_48 y NEN VDD VDD PMOS_VTL L=0.050000U W=0.630000U 
M_i_24 VDD y Z VDD PMOS_VTL L=0.050000U W=0.540000U 
M_i_24_3 VDD y Z VDD PMOS_VTL L=0.050000U W=0.540000U 
M_i_24_8 VDD y Z VDD PMOS_VTL L=0.050000U W=0.540000U 
M_i_24_3_19 VDD y Z VDD PMOS_VTL L=0.050000U W=0.540000U 
M_i_24_9 VDD y Z VDD PMOS_VTL L=0.050000U W=0.540000U 
M_i_24_3_18 VDD y Z VDD PMOS_VTL L=0.050000U W=0.540000U 
M_i_24_8_39 VDD y Z VDD PMOS_VTL L=0.050000U W=0.540000U 
M_i_24_3_19_50 VDD y Z VDD PMOS_VTL L=0.050000U W=0.540000U 
M_i_17 VSS EN NEN VSS NMOS_VTL L=0.050000U W=0.415000U 
M_i_0_14 VSS EN x VSS NMOS_VTL L=0.050000U W=0.415000U 
M_i_0_15 VSS A x VSS NMOS_VTL L=0.050000U W=0.415000U 
M_i_0_15_129 VSS A x VSS NMOS_VTL L=0.050000U W=0.415000U 
M_i_0_14_113 VSS EN x VSS NMOS_VTL L=0.050000U W=0.415000U 
M_i_0_14_47_77 VSS NEN dummy1 VSS NMOS_VTL L=0.050000U W=0.415000U 
M_i_0_15_63_69 dummy1 A y VSS NMOS_VTL L=0.050000U W=0.415000U 
M_i_0_15_63 dummy1a A y VSS NMOS_VTL L=0.050000U W=0.415000U 
M_i_0_14_47 VSS NEN dummy1a VSS NMOS_VTL L=0.050000U W=0.415000U 
M_i_0 VSS x Z VSS NMOS_VTL L=0.050000U W=0.355000U 
M_i_0_6 VSS x Z VSS NMOS_VTL L=0.050000U W=0.355000U 
M_i_0_13 VSS x Z VSS NMOS_VTL L=0.050000U W=0.355000U 
M_i_0_6_6 VSS x Z VSS NMOS_VTL L=0.050000U W=0.355000U 
M_i_0_42 VSS x Z VSS NMOS_VTL L=0.050000U W=0.355000U 
M_i_0_6_37 VSS x Z VSS NMOS_VTL L=0.050000U W=0.355000U 
M_i_0_13_45 VSS x Z VSS NMOS_VTL L=0.050000U W=0.355000U 
M_i_0_6_6_40 VSS x Z VSS NMOS_VTL L=0.050000U W=0.355000U 
.ENDS

.SUBCKT TBUF_X4 A EN Z VDD VSS 
M_i_42 VDD EN NEN VDD PMOS_VTL L=0.050000U W=0.315000U 
M_i_24_1 dummy0 EN VDD VDD PMOS_VTL L=0.050000U W=0.630000U 
M_i_24_0 x A dummy0 VDD PMOS_VTL L=0.050000U W=0.630000U 
M_i_24_0_64 VDD A y VDD PMOS_VTL L=0.050000U W=0.630000U 
M_i_24_1_48 y NEN VDD VDD PMOS_VTL L=0.050000U W=0.630000U 
M_i_24 VDD y Z VDD PMOS_VTL L=0.050000U W=0.540000U 
M_i_24_3 VDD y Z VDD PMOS_VTL L=0.050000U W=0.540000U 
M_i_24_8 VDD y Z VDD PMOS_VTL L=0.050000U W=0.540000U 
M_i_24_3_19 VDD y Z VDD PMOS_VTL L=0.050000U W=0.540000U 
M_i_17 VSS EN NEN VSS NMOS_VTL L=0.050000U W=0.210000U 
M_i_0_14 VSS EN x VSS NMOS_VTL L=0.050000U W=0.415000U 
M_i_0_15 VSS A x VSS NMOS_VTL L=0.050000U W=0.415000U 
M_i_0_15_63 dummy1 A y VSS NMOS_VTL L=0.050000U W=0.415000U 
M_i_0_14_47 VSS NEN dummy1 VSS NMOS_VTL L=0.050000U W=0.415000U 
M_i_0 VSS x Z VSS NMOS_VTL L=0.050000U W=0.355000U 
M_i_0_6 VSS x Z VSS NMOS_VTL L=0.050000U W=0.355000U 
M_i_0_13 VSS x Z VSS NMOS_VTL L=0.050000U W=0.355000U 
M_i_0_6_6 VSS x Z VSS NMOS_VTL L=0.050000U W=0.355000U 
.ENDS

.SUBCKT TBUF_X2 A EN Z VDD VSS 
M_i_42 VDD EN NEN VDD PMOS_VTL L=0.050000U W=0.315000U 
M_i_24_1_48 y NEN VDD VDD PMOS_VTL L=0.050000U W=0.630000U 
M_i_24_0_64 VDD A y VDD PMOS_VTL L=0.050000U W=0.630000U 
M_i_24_0 VDD A dummy0 VDD PMOS_VTL L=0.050000U W=0.630000U 
M_i_24_1 dummy0 EN x VDD PMOS_VTL L=0.050000U W=0.630000U 
M_i_24 VDD y Z VDD PMOS_VTL L=0.050000U W=0.540000U 
M_i_24_3 VDD y Z VDD PMOS_VTL L=0.050000U W=0.540000U 
M_i_17 VSS EN NEN VSS NMOS_VTL L=0.050000U W=0.210000U 
M_i_0_14_47 VSS NEN dummy1 VSS NMOS_VTL L=0.050000U W=0.415000U 
M_i_0_15_63 dummy1 A y VSS NMOS_VTL L=0.050000U W=0.415000U 
M_i_0_15 VSS A x VSS NMOS_VTL L=0.050000U W=0.415000U 
M_i_0_14 VSS EN x VSS NMOS_VTL L=0.050000U W=0.415000U 
M_i_0 VSS x Z VSS NMOS_VTL L=0.050000U W=0.355000U 
M_i_0_6 VSS x Z VSS NMOS_VTL L=0.050000U W=0.355000U 
.ENDS

.SUBCKT TBUF_X16 A EN Z VDD VSS 
M_i_42 VDD EN NEN VDD PMOS_VTL L=0.050000U W=0.630000U 
M_i_24_1 dummy0 EN VDD VDD PMOS_VTL L=0.050000U W=0.630000U 
M_i_24_0 x A dummy0 VDD PMOS_VTL L=0.050000U W=0.630000U 
M_i_24_0_130 x A dummy0a VDD PMOS_VTL L=0.050000U W=0.630000U 
M_i_24_1_114 dummy0a EN VDD VDD PMOS_VTL L=0.050000U W=0.630000U 
M_i_24_1_48_94 y NEN VDD VDD PMOS_VTL L=0.050000U W=0.630000U 
M_i_24_0_64_92 VDD A y VDD PMOS_VTL L=0.050000U W=0.630000U 
M_i_24_0_64 VDD A y VDD PMOS_VTL L=0.050000U W=0.630000U 
M_i_24_1_48 y NEN VDD VDD PMOS_VTL L=0.050000U W=0.630000U 
M_i_24 VDD y Z VDD PMOS_VTL L=0.050000U W=0.540000U 
M_i_24_3 VDD y Z VDD PMOS_VTL L=0.050000U W=0.540000U 
M_i_24_8 VDD y Z VDD PMOS_VTL L=0.050000U W=0.540000U 
M_i_24_3_19 VDD y Z VDD PMOS_VTL L=0.050000U W=0.540000U 
M_i_24_9 VDD y Z VDD PMOS_VTL L=0.050000U W=0.540000U 
M_i_24_3_18 VDD y Z VDD PMOS_VTL L=0.050000U W=0.540000U 
M_i_24_8_39 VDD y Z VDD PMOS_VTL L=0.050000U W=0.540000U 
M_i_24_3_19_50 VDD y Z VDD PMOS_VTL L=0.050000U W=0.540000U 
M_i_24_10 VDD y Z VDD PMOS_VTL L=0.050000U W=0.540000U 
M_i_24_3_83 VDD y Z VDD PMOS_VTL L=0.050000U W=0.540000U 
M_i_24_8_42 VDD y Z VDD PMOS_VTL L=0.050000U W=0.540000U 
M_i_24_3_19_51 VDD y Z VDD PMOS_VTL L=0.050000U W=0.540000U 
M_i_24_9_17 VDD y Z VDD PMOS_VTL L=0.050000U W=0.540000U 
M_i_24_3_18_103 VDD y Z VDD PMOS_VTL L=0.050000U W=0.540000U 
M_i_24_8_39_66 VDD y Z VDD PMOS_VTL L=0.050000U W=0.540000U 
M_i_24_3_19_50_12 VDD y Z VDD PMOS_VTL L=0.050000U W=0.540000U 
M_i_17 VSS EN NEN VSS NMOS_VTL L=0.050000U W=0.415000U 
M_i_0_14 VSS EN x VSS NMOS_VTL L=0.050000U W=0.415000U 
M_i_0_15 VSS A x VSS NMOS_VTL L=0.050000U W=0.415000U 
M_i_0_15_129 VSS A x VSS NMOS_VTL L=0.050000U W=0.415000U 
M_i_0_14_113 VSS EN x VSS NMOS_VTL L=0.050000U W=0.415000U 
M_i_0_14_47_77 VSS NEN dummy1 VSS NMOS_VTL L=0.050000U W=0.415000U 
M_i_0_15_63_69 dummy1 A y VSS NMOS_VTL L=0.050000U W=0.415000U 
M_i_0_15_63 dummy1a A y VSS NMOS_VTL L=0.050000U W=0.415000U 
M_i_0_14_47 VSS NEN dummy1a VSS NMOS_VTL L=0.050000U W=0.415000U 
M_i_0 VSS x Z VSS NMOS_VTL L=0.050000U W=0.355000U 
M_i_0_6 VSS x Z VSS NMOS_VTL L=0.050000U W=0.355000U 
M_i_0_13 VSS x Z VSS NMOS_VTL L=0.050000U W=0.355000U 
M_i_0_6_6 VSS x Z VSS NMOS_VTL L=0.050000U W=0.355000U 
M_i_0_42 VSS x Z VSS NMOS_VTL L=0.050000U W=0.355000U 
M_i_0_6_37 VSS x Z VSS NMOS_VTL L=0.050000U W=0.355000U 
M_i_0_13_45 VSS x Z VSS NMOS_VTL L=0.050000U W=0.355000U 
M_i_0_6_6_40 VSS x Z VSS NMOS_VTL L=0.050000U W=0.355000U 
M_i_0_116 VSS x Z VSS NMOS_VTL L=0.050000U W=0.355000U 
M_i_0_6_106 VSS x Z VSS NMOS_VTL L=0.050000U W=0.355000U 
M_i_0_13_120 VSS x Z VSS NMOS_VTL L=0.050000U W=0.355000U 
M_i_0_6_6_43 VSS x Z VSS NMOS_VTL L=0.050000U W=0.355000U 
M_i_0_42_108 VSS x Z VSS NMOS_VTL L=0.050000U W=0.355000U 
M_i_0_6_37_112 VSS x Z VSS NMOS_VTL L=0.050000U W=0.355000U 
M_i_0_13_45_122 VSS x Z VSS NMOS_VTL L=0.050000U W=0.355000U 
M_i_0_6_6_40_125 VSS x Z VSS NMOS_VTL L=0.050000U W=0.355000U 
.ENDS

.SUBCKT TBUF_X1 A EN Z VDD VSS 
M_i_42 VDD EN NEN VDD PMOS_VTL L=0.050000U W=0.315000U 
M_i_24_1 dummy0 EN x VDD PMOS_VTL L=0.050000U W=0.315000U 
M_i_24_0 VDD A dummy0 VDD PMOS_VTL L=0.050000U W=0.315000U 
M_i_24_1_48 y NEN VDD VDD PMOS_VTL L=0.050000U W=0.315000U 
M_i_24_0_64 VDD A y VDD PMOS_VTL L=0.050000U W=0.315000U 
M_i_24 VDD y Z VDD PMOS_VTL L=0.050000U W=0.540000U 
M_i_17 VSS EN NEN VSS NMOS_VTL L=0.050000U W=0.210000U 
M_i_0_14 VSS EN x VSS NMOS_VTL L=0.050000U W=0.210000U 
M_i_0_15 VSS A x VSS NMOS_VTL L=0.050000U W=0.210000U 
M_i_0_14_47 VSS NEN dummy1 VSS NMOS_VTL L=0.050000U W=0.210000U 
M_i_0_15_63 dummy1 A y VSS NMOS_VTL L=0.050000U W=0.210000U 
M_i_0 VSS x Z VSS NMOS_VTL L=0.050000U W=0.355000U 
.ENDS

.SUBCKT SDFF_X2 D SE SI CK Q QN VDD VSS 
M_i_210 net_013 SE VDD VDD PMOS_VTL L=0.050000U W=0.315000U 
M_i_204 VDD D net_019 VDD PMOS_VTL L=0.050000U W=0.420000U 
M_i_200 net_019 SE net_011 VDD PMOS_VTL L=0.050000U W=0.420000U 
M_i_194 net_011 net_013 net_018 VDD PMOS_VTL L=0.050000U W=0.315000U 
M_i_189 net_018 SI VDD VDD PMOS_VTL L=0.050000U W=0.315000U 
M_i_155 VDD net_007 net_005 VDD PMOS_VTL L=0.050000U W=0.315000U 
M_i_176 VDD net_011 net_017 VDD PMOS_VTL L=0.050000U W=0.315000U 
M_i_172 net_017 net_004 net_007 VDD PMOS_VTL L=0.050000U W=0.315000U 
M_i_166 net_007 net_009 net_016 VDD PMOS_VTL L=0.050000U W=0.090000U 
M_i_162 net_016 net_005 VDD VDD PMOS_VTL L=0.050000U W=0.090000U 
M_i_182 net_009 CK VDD VDD PMOS_VTL L=0.050000U W=0.315000U 
M_i_149 net_004 net_009 VDD VDD PMOS_VTL L=0.050000U W=0.315000U 
M_i_143 VDD net_007 net_015 VDD PMOS_VTL L=0.050000U W=0.315000U 
M_i_138 net_015 net_009 net_002 VDD PMOS_VTL L=0.050000U W=0.315000U 
M_i_132 net_002 net_004 net_014 VDD PMOS_VTL L=0.050000U W=0.090000U 
M_i_128 net_014 net_000 VDD VDD PMOS_VTL L=0.050000U W=0.090000U 
M_i_115_2 QN net_000 VDD VDD PMOS_VTL L=0.050000U W=0.630000U 
M_i_115 QN net_000 VDD VDD PMOS_VTL L=0.050000U W=0.630000U 
M_i_108 VDD net_002 Q VDD PMOS_VTL L=0.050000U W=0.630000U 
M_i_108_51 VDD net_002 Q VDD PMOS_VTL L=0.050000U W=0.630000U 
M_i_121 VDD net_002 net_000 VDD PMOS_VTL L=0.050000U W=0.630000U 
M_i_102 net_013 SE VSS VSS NMOS_VTL L=0.050000U W=0.210000U 
M_i_81 net_010 D VSS VSS NMOS_VTL L=0.050000U W=0.275000U 
M_i_86 net_011 net_013 net_010 VSS NMOS_VTL L=0.050000U W=0.275000U 
M_i_92 net_012 SE net_011 VSS NMOS_VTL L=0.050000U W=0.210000U 
M_i_96 VSS SI net_012 VSS NMOS_VTL L=0.050000U W=0.210000U 
M_i_47 VSS net_007 net_005 VSS NMOS_VTL L=0.050000U W=0.210000U 
M_i_69 VSS net_011 net_008 VSS NMOS_VTL L=0.050000U W=0.210000U 
M_i_64 net_008 net_009 net_007 VSS NMOS_VTL L=0.050000U W=0.210000U 
M_i_58 net_007 net_004 net_006 VSS NMOS_VTL L=0.050000U W=0.090000U 
M_i_54 net_006 net_005 VSS VSS NMOS_VTL L=0.050000U W=0.090000U 
M_i_75 net_009 CK VSS VSS NMOS_VTL L=0.050000U W=0.210000U 
M_i_40 net_004 net_009 VSS VSS NMOS_VTL L=0.050000U W=0.210000U 
M_i_34 VSS net_007 net_003 VSS NMOS_VTL L=0.050000U W=0.210000U 
M_i_30 net_003 net_004 net_002 VSS NMOS_VTL L=0.050000U W=0.210000U 
M_i_24 net_002 net_009 net_001 VSS NMOS_VTL L=0.050000U W=0.090000U 
M_i_20 net_001 net_000 VSS VSS NMOS_VTL L=0.050000U W=0.090000U 
M_i_7_4 QN net_000 VSS VSS NMOS_VTL L=0.050000U W=0.415000U 
M_i_7 QN net_000 VSS VSS NMOS_VTL L=0.050000U W=0.415000U 
M_i_0 VSS net_002 Q VSS NMOS_VTL L=0.050000U W=0.415000U 
M_i_0_50 VSS net_002 Q VSS NMOS_VTL L=0.050000U W=0.415000U 
M_i_13 VSS net_002 net_000 VSS NMOS_VTL L=0.050000U W=0.415000U 
.ENDS

.SUBCKT SDFF_X1 D SE SI CK Q QN VDD VSS 
M_i_210 net_013 SE VDD VDD PMOS_VTL L=0.050000U W=0.315000U 
M_i_204 VDD D net_019 VDD PMOS_VTL L=0.050000U W=0.420000U 
M_i_200 net_019 SE net_011 VDD PMOS_VTL L=0.050000U W=0.420000U 
M_i_194 net_011 net_013 net_018 VDD PMOS_VTL L=0.050000U W=0.315000U 
M_i_189 net_018 SI VDD VDD PMOS_VTL L=0.050000U W=0.315000U 
M_i_155 VDD net_007 net_005 VDD PMOS_VTL L=0.050000U W=0.315000U 
M_i_176 VDD net_011 net_017 VDD PMOS_VTL L=0.050000U W=0.315000U 
M_i_172 net_017 net_004 net_007 VDD PMOS_VTL L=0.050000U W=0.315000U 
M_i_166 net_007 net_009 net_016 VDD PMOS_VTL L=0.050000U W=0.090000U 
M_i_162 net_016 net_005 VDD VDD PMOS_VTL L=0.050000U W=0.090000U 
M_i_182 net_009 CK VDD VDD PMOS_VTL L=0.050000U W=0.315000U 
M_i_149 net_004 net_009 VDD VDD PMOS_VTL L=0.050000U W=0.315000U 
M_i_143 VDD net_007 net_015 VDD PMOS_VTL L=0.050000U W=0.315000U 
M_i_138 net_015 net_009 net_002 VDD PMOS_VTL L=0.050000U W=0.315000U 
M_i_132 net_002 net_004 net_014 VDD PMOS_VTL L=0.050000U W=0.090000U 
M_i_128 net_014 net_000 VDD VDD PMOS_VTL L=0.050000U W=0.090000U 
M_i_121 VDD net_002 net_000 VDD PMOS_VTL L=0.050000U W=0.315000U 
M_i_108 VDD net_002 Q VDD PMOS_VTL L=0.050000U W=0.630000U 
M_i_115 QN net_000 VDD VDD PMOS_VTL L=0.050000U W=0.630000U 
M_i_102 net_013 SE VSS VSS NMOS_VTL L=0.050000U W=0.210000U 
M_i_81 net_010 D VSS VSS NMOS_VTL L=0.050000U W=0.275000U 
M_i_86 net_011 net_013 net_010 VSS NMOS_VTL L=0.050000U W=0.275000U 
M_i_92 net_012 SE net_011 VSS NMOS_VTL L=0.050000U W=0.210000U 
M_i_96 VSS SI net_012 VSS NMOS_VTL L=0.050000U W=0.210000U 
M_i_47 VSS net_007 net_005 VSS NMOS_VTL L=0.050000U W=0.210000U 
M_i_69 VSS net_011 net_008 VSS NMOS_VTL L=0.050000U W=0.210000U 
M_i_64 net_008 net_009 net_007 VSS NMOS_VTL L=0.050000U W=0.210000U 
M_i_58 net_007 net_004 net_006 VSS NMOS_VTL L=0.050000U W=0.090000U 
M_i_54 net_006 net_005 VSS VSS NMOS_VTL L=0.050000U W=0.090000U 
M_i_75 net_009 CK VSS VSS NMOS_VTL L=0.050000U W=0.210000U 
M_i_40 net_004 net_009 VSS VSS NMOS_VTL L=0.050000U W=0.210000U 
M_i_34 VSS net_007 net_003 VSS NMOS_VTL L=0.050000U W=0.210000U 
M_i_30 net_003 net_004 net_002 VSS NMOS_VTL L=0.050000U W=0.210000U 
M_i_24 net_002 net_009 net_001 VSS NMOS_VTL L=0.050000U W=0.090000U 
M_i_20 net_001 net_000 VSS VSS NMOS_VTL L=0.050000U W=0.090000U 
M_i_13 VSS net_002 net_000 VSS NMOS_VTL L=0.050000U W=0.210000U 
M_i_0 VSS net_002 Q VSS NMOS_VTL L=0.050000U W=0.415000U 
M_i_7 QN net_000 VSS VSS NMOS_VTL L=0.050000U W=0.415000U 
.ENDS

.SUBCKT SDFFS_X2 D SE SI SN CK Q QN VDD VSS 
M_i_230_17 VDD net_015 QN VDD PMOS_VTL L=0.050000U W=0.630000U 
M_i_230 VDD net_015 QN VDD PMOS_VTL L=0.050000U W=0.630000U 
M_i_237 Q net_012 VDD VDD PMOS_VTL L=0.050000U W=0.630000U 
M_i_237_1 Q net_012 VDD VDD PMOS_VTL L=0.050000U W=0.630000U 
M_i_224 VDD net_012 net_015 VDD PMOS_VTL L=0.050000U W=0.630000U 
M_i_218 net_015 SN VDD VDD PMOS_VTL L=0.050000U W=0.630000U 
M_i_189 VDD net_007 net_010 VDD PMOS_VTL L=0.050000U W=0.315000U 
M_i_212 VDD net_015 net_022 VDD PMOS_VTL L=0.050000U W=0.090000U 
M_i_208 net_022 net_005 net_012 VDD PMOS_VTL L=0.050000U W=0.090000U 
M_i_201 net_012 net_004 net_021 VDD PMOS_VTL L=0.050000U W=0.315000U 
M_i_197 net_021 net_007 VDD VDD PMOS_VTL L=0.050000U W=0.315000U 
M_i_178 net_019 SN VDD VDD PMOS_VTL L=0.050000U W=0.090000U 
M_i_172 VDD net_010 net_019 VDD PMOS_VTL L=0.050000U W=0.090000U 
M_i_168 net_019 net_004 net_007 VDD PMOS_VTL L=0.050000U W=0.090000U 
M_i_162 net_007 net_005 net_018 VDD PMOS_VTL L=0.050000U W=0.315000U 
M_i_157 net_018 net_002 VDD VDD PMOS_VTL L=0.050000U W=0.315000U 
M_i_150 net_005 net_004 VDD VDD PMOS_VTL L=0.050000U W=0.315000U 
M_i_143 VDD CK net_004 VDD PMOS_VTL L=0.050000U W=0.315000U 
M_i_137 VDD SI net_017 VDD PMOS_VTL L=0.050000U W=0.315000U 
M_i_133 net_017 net_000 net_002 VDD PMOS_VTL L=0.050000U W=0.315000U 
M_i_127 net_002 SE net_016 VDD PMOS_VTL L=0.050000U W=0.420000U 
M_i_123 net_016 D VDD VDD PMOS_VTL L=0.050000U W=0.420000U 
M_i_116 VDD SE net_000 VDD PMOS_VTL L=0.050000U W=0.315000U 
M_i_103_26 VSS net_015 QN VSS NMOS_VTL L=0.050000U W=0.415000U 
M_i_103 VSS net_015 QN VSS NMOS_VTL L=0.050000U W=0.415000U 
M_i_110 Q net_012 VSS VSS NMOS_VTL L=0.050000U W=0.415000U 
M_i_110_2 Q net_012 VSS VSS NMOS_VTL L=0.050000U W=0.415000U 
M_i_97 VSS net_012 net_014 VSS NMOS_VTL L=0.050000U W=0.415000U 
M_i_93 net_014 SN net_015 VSS NMOS_VTL L=0.050000U W=0.415000U 
M_i_66 net_010 net_007 VSS VSS NMOS_VTL L=0.050000U W=0.210000U 
M_i_87 VSS net_015 net_013 VSS NMOS_VTL L=0.050000U W=0.090000U 
M_i_83 net_013 net_004 net_012 VSS NMOS_VTL L=0.050000U W=0.090000U 
M_i_77 net_012 net_005 net_011 VSS NMOS_VTL L=0.050000U W=0.210000U 
M_i_73 net_011 net_007 VSS VSS NMOS_VTL L=0.050000U W=0.210000U 
M_i_60 VSS SN net_009 VSS NMOS_VTL L=0.050000U W=0.090000U 
M_i_56 net_009 net_010 net_008 VSS NMOS_VTL L=0.050000U W=0.090000U 
M_i_51 net_008 net_005 net_007 VSS NMOS_VTL L=0.050000U W=0.090000U 
M_i_45 net_007 net_004 net_006 VSS NMOS_VTL L=0.050000U W=0.210000U 
M_i_40 net_006 net_002 VSS VSS NMOS_VTL L=0.050000U W=0.210000U 
M_i_34 net_005 net_004 VSS VSS NMOS_VTL L=0.050000U W=0.210000U 
M_i_27 VSS CK net_004 VSS NMOS_VTL L=0.050000U W=0.210000U 
M_i_7 net_001 SI VSS VSS NMOS_VTL L=0.050000U W=0.210000U 
M_i_11 net_002 SE net_001 VSS NMOS_VTL L=0.050000U W=0.210000U 
M_i_17 net_003 net_000 net_002 VSS NMOS_VTL L=0.050000U W=0.275000U 
M_i_21 VSS D net_003 VSS NMOS_VTL L=0.050000U W=0.275000U 
M_i_0 VSS SE net_000 VSS NMOS_VTL L=0.050000U W=0.210000U 
.ENDS

.SUBCKT SDFFS_X1 D SE SI SN CK Q QN VDD VSS 
M_i_230 VDD net_015 QN VDD PMOS_VTL L=0.050000U W=0.630000U 
M_i_237 Q net_012 VDD VDD PMOS_VTL L=0.050000U W=0.630000U 
M_i_224 VDD net_012 net_015 VDD PMOS_VTL L=0.050000U W=0.315000U 
M_i_218 net_015 SN VDD VDD PMOS_VTL L=0.050000U W=0.315000U 
M_i_212 VDD net_015 net_022 VDD PMOS_VTL L=0.050000U W=0.090000U 
M_i_208 net_022 net_005 net_012 VDD PMOS_VTL L=0.050000U W=0.090000U 
M_i_201 net_012 net_004 net_021 VDD PMOS_VTL L=0.050000U W=0.315000U 
M_i_197 net_021 net_007 VDD VDD PMOS_VTL L=0.050000U W=0.315000U 
M_i_189 VDD net_007 net_010 VDD PMOS_VTL L=0.050000U W=0.315000U 
M_i_178 net_019 SN VDD VDD PMOS_VTL L=0.050000U W=0.090000U 
M_i_172 VDD net_010 net_019 VDD PMOS_VTL L=0.050000U W=0.090000U 
M_i_168 net_019 net_004 net_007 VDD PMOS_VTL L=0.050000U W=0.090000U 
M_i_162 net_007 net_005 net_018 VDD PMOS_VTL L=0.050000U W=0.315000U 
M_i_157 net_018 net_002 VDD VDD PMOS_VTL L=0.050000U W=0.315000U 
M_i_150 net_005 net_004 VDD VDD PMOS_VTL L=0.050000U W=0.315000U 
M_i_143 VDD CK net_004 VDD PMOS_VTL L=0.050000U W=0.315000U 
M_i_137 VDD SI net_017 VDD PMOS_VTL L=0.050000U W=0.315000U 
M_i_133 net_017 net_000 net_002 VDD PMOS_VTL L=0.050000U W=0.315000U 
M_i_127 net_002 SE net_016 VDD PMOS_VTL L=0.050000U W=0.420000U 
M_i_123 net_016 D VDD VDD PMOS_VTL L=0.050000U W=0.420000U 
M_i_116 VDD SE net_000 VDD PMOS_VTL L=0.050000U W=0.315000U 
M_i_103 VSS net_015 QN VSS NMOS_VTL L=0.050000U W=0.415000U 
M_i_110 Q net_012 VSS VSS NMOS_VTL L=0.050000U W=0.415000U 
M_i_97 net_015 net_012 net_014 VSS NMOS_VTL L=0.050000U W=0.210000U 
M_i_93 net_014 SN VSS VSS NMOS_VTL L=0.050000U W=0.210000U 
M_i_87 VSS net_015 net_013 VSS NMOS_VTL L=0.050000U W=0.090000U 
M_i_83 net_013 net_004 net_012 VSS NMOS_VTL L=0.050000U W=0.090000U 
M_i_77 net_012 net_005 net_011 VSS NMOS_VTL L=0.050000U W=0.210000U 
M_i_73 net_011 net_007 VSS VSS NMOS_VTL L=0.050000U W=0.210000U 
M_i_66 net_010 net_007 VSS VSS NMOS_VTL L=0.050000U W=0.210000U 
M_i_60 VSS SN net_009 VSS NMOS_VTL L=0.050000U W=0.090000U 
M_i_56 net_009 net_010 net_008 VSS NMOS_VTL L=0.050000U W=0.090000U 
M_i_51 net_008 net_005 net_007 VSS NMOS_VTL L=0.050000U W=0.090000U 
M_i_45 net_007 net_004 net_006 VSS NMOS_VTL L=0.050000U W=0.210000U 
M_i_40 net_006 net_002 VSS VSS NMOS_VTL L=0.050000U W=0.210000U 
M_i_34 net_005 net_004 VSS VSS NMOS_VTL L=0.050000U W=0.210000U 
M_i_27 VSS CK net_004 VSS NMOS_VTL L=0.050000U W=0.210000U 
M_i_7 net_001 SI VSS VSS NMOS_VTL L=0.050000U W=0.210000U 
M_i_11 net_002 SE net_001 VSS NMOS_VTL L=0.050000U W=0.210000U 
M_i_17 net_003 net_000 net_002 VSS NMOS_VTL L=0.050000U W=0.275000U 
M_i_21 VSS D net_003 VSS NMOS_VTL L=0.050000U W=0.275000U 
M_i_0 VSS SE net_000 VSS NMOS_VTL L=0.050000U W=0.210000U 
.ENDS

.SUBCKT SDFFR_X2 D RN SE SI CK Q QN VDD VSS 
M_i_236 net_015 SE VDD VDD PMOS_VTL L=0.050000U W=0.315000U 
M_i_230 VDD D net_022 VDD PMOS_VTL L=0.050000U W=0.420000U 
M_i_226 net_022 SE net_013 VDD PMOS_VTL L=0.050000U W=0.420000U 
M_i_220 net_013 net_015 net_021 VDD PMOS_VTL L=0.050000U W=0.315000U 
M_i_215 net_021 SI VDD VDD PMOS_VTL L=0.050000U W=0.315000U 
M_i_181 VDD RN net_006 VDD PMOS_VTL L=0.050000U W=0.090000U 
M_i_174 net_006 net_009 VDD VDD PMOS_VTL L=0.050000U W=0.090000U 
M_i_203 VDD net_013 net_020 VDD PMOS_VTL L=0.050000U W=0.315000U 
M_i_199 net_020 net_005 net_009 VDD PMOS_VTL L=0.050000U W=0.315000U 
M_i_193 net_009 net_011 net_019 VDD PMOS_VTL L=0.050000U W=0.090000U 
M_i_188 net_019 net_006 VDD VDD PMOS_VTL L=0.050000U W=0.090000U 
M_i_167 VDD net_011 net_005 VDD PMOS_VTL L=0.050000U W=0.315000U 
M_i_209 net_011 CK VDD VDD PMOS_VTL L=0.050000U W=0.315000U 
M_i_157 net_018 net_009 VDD VDD PMOS_VTL L=0.050000U W=0.315000U 
M_i_161 net_003 net_011 net_018 VDD PMOS_VTL L=0.050000U W=0.315000U 
M_i_146 net_017 net_005 net_003 VDD PMOS_VTL L=0.050000U W=0.315000U 
M_i_151 VDD net_000 net_017 VDD PMOS_VTL L=0.050000U W=0.315000U 
M_i_136 net_017 RN VDD VDD PMOS_VTL L=0.050000U W=0.315000U 
M_i_116_1 VDD net_000 QN VDD PMOS_VTL L=0.050000U W=0.630000U 
M_i_116 VDD net_000 QN VDD PMOS_VTL L=0.050000U W=0.630000U 
M_i_123 Q net_003 VDD VDD PMOS_VTL L=0.050000U W=0.630000U 
M_i_123_146 Q net_003 VDD VDD PMOS_VTL L=0.050000U W=0.630000U 
M_i_129 VDD net_003 net_000 VDD PMOS_VTL L=0.050000U W=0.630000U 
M_i_110 net_015 SE VSS VSS NMOS_VTL L=0.050000U W=0.210000U 
M_i_89 net_012 D VSS VSS NMOS_VTL L=0.050000U W=0.275000U 
M_i_94 net_013 net_015 net_012 VSS NMOS_VTL L=0.050000U W=0.275000U 
M_i_100 net_014 SE net_013 VSS NMOS_VTL L=0.050000U W=0.210000U 
M_i_104 VSS SI net_014 VSS NMOS_VTL L=0.050000U W=0.210000U 
M_i_56 VSS RN net_007 VSS NMOS_VTL L=0.050000U W=0.090000U 
M_i_51 net_007 net_009 net_006 VSS NMOS_VTL L=0.050000U W=0.090000U 
M_i_77 VSS net_013 net_010 VSS NMOS_VTL L=0.050000U W=0.210000U 
M_i_72 net_010 net_011 net_009 VSS NMOS_VTL L=0.050000U W=0.210000U 
M_i_66 net_009 net_005 net_008 VSS NMOS_VTL L=0.050000U W=0.090000U 
M_i_62 net_008 net_006 VSS VSS NMOS_VTL L=0.050000U W=0.090000U 
M_i_45 net_005 net_011 VSS VSS NMOS_VTL L=0.050000U W=0.210000U 
M_i_83 net_011 CK VSS VSS NMOS_VTL L=0.050000U W=0.210000U 
M_i_39 VSS net_009 net_004 VSS NMOS_VTL L=0.050000U W=0.210000U 
M_i_35 net_004 net_005 net_003 VSS NMOS_VTL L=0.050000U W=0.210000U 
M_i_29 net_003 net_011 net_002 VSS NMOS_VTL L=0.050000U W=0.210000U 
M_i_25 net_002 net_000 net_001 VSS NMOS_VTL L=0.050000U W=0.210000U 
M_i_21 net_001 RN VSS VSS NMOS_VTL L=0.050000U W=0.210000U 
M_i_0_10 VSS net_000 QN VSS NMOS_VTL L=0.050000U W=0.415000U 
M_i_0 VSS net_000 QN VSS NMOS_VTL L=0.050000U W=0.415000U 
M_i_7 Q net_003 VSS VSS NMOS_VTL L=0.050000U W=0.415000U 
M_i_7_145 Q net_003 VSS VSS NMOS_VTL L=0.050000U W=0.415000U 
M_i_13 VSS net_003 net_000 VSS NMOS_VTL L=0.050000U W=0.415000U 
.ENDS

.SUBCKT SDFFR_X1 D RN SE SI CK Q QN VDD VSS 
M_i_236 net_015 SE VDD VDD PMOS_VTL L=0.050000U W=0.315000U 
M_i_230 VDD D net_022 VDD PMOS_VTL L=0.050000U W=0.420000U 
M_i_226 net_022 SE net_013 VDD PMOS_VTL L=0.050000U W=0.420000U 
M_i_220 net_013 net_015 net_021 VDD PMOS_VTL L=0.050000U W=0.315000U 
M_i_215 net_021 SI VDD VDD PMOS_VTL L=0.050000U W=0.315000U 
M_i_181 VDD RN net_006 VDD PMOS_VTL L=0.050000U W=0.090000U 
M_i_174 net_006 net_009 VDD VDD PMOS_VTL L=0.050000U W=0.090000U 
M_i_203 VDD net_013 net_020 VDD PMOS_VTL L=0.050000U W=0.315000U 
M_i_199 net_020 net_005 net_009 VDD PMOS_VTL L=0.050000U W=0.315000U 
M_i_193 net_009 net_011 net_019 VDD PMOS_VTL L=0.050000U W=0.090000U 
M_i_188 net_019 net_006 VDD VDD PMOS_VTL L=0.050000U W=0.090000U 
M_i_167 VDD net_011 net_005 VDD PMOS_VTL L=0.050000U W=0.315000U 
M_i_209 net_011 CK VDD VDD PMOS_VTL L=0.050000U W=0.315000U 
M_i_157 net_018 net_009 VDD VDD PMOS_VTL L=0.050000U W=0.315000U 
M_i_161 net_003 net_011 net_018 VDD PMOS_VTL L=0.050000U W=0.315000U 
M_i_146 net_017 net_005 net_003 VDD PMOS_VTL L=0.050000U W=0.315000U 
M_i_151 VDD net_000 net_017 VDD PMOS_VTL L=0.050000U W=0.315000U 
M_i_136 net_017 RN VDD VDD PMOS_VTL L=0.050000U W=0.315000U 
M_i_129 VDD net_003 net_000 VDD PMOS_VTL L=0.050000U W=0.315000U 
M_i_123 Q net_003 VDD VDD PMOS_VTL L=0.050000U W=0.630000U 
M_i_116 VDD net_000 QN VDD PMOS_VTL L=0.050000U W=0.630000U 
M_i_110 net_015 SE VSS VSS NMOS_VTL L=0.050000U W=0.210000U 
M_i_89 net_012 D VSS VSS NMOS_VTL L=0.050000U W=0.275000U 
M_i_94 net_013 net_015 net_012 VSS NMOS_VTL L=0.050000U W=0.275000U 
M_i_100 net_014 SE net_013 VSS NMOS_VTL L=0.050000U W=0.210000U 
M_i_104 VSS SI net_014 VSS NMOS_VTL L=0.050000U W=0.210000U 
M_i_56 VSS RN net_007 VSS NMOS_VTL L=0.050000U W=0.090000U 
M_i_51 net_007 net_009 net_006 VSS NMOS_VTL L=0.050000U W=0.090000U 
M_i_77 VSS net_013 net_010 VSS NMOS_VTL L=0.050000U W=0.210000U 
M_i_72 net_010 net_011 net_009 VSS NMOS_VTL L=0.050000U W=0.210000U 
M_i_66 net_009 net_005 net_008 VSS NMOS_VTL L=0.050000U W=0.090000U 
M_i_62 net_008 net_006 VSS VSS NMOS_VTL L=0.050000U W=0.090000U 
M_i_45 net_005 net_011 VSS VSS NMOS_VTL L=0.050000U W=0.210000U 
M_i_83 net_011 CK VSS VSS NMOS_VTL L=0.050000U W=0.210000U 
M_i_39 VSS net_009 net_004 VSS NMOS_VTL L=0.050000U W=0.210000U 
M_i_35 net_004 net_005 net_003 VSS NMOS_VTL L=0.050000U W=0.210000U 
M_i_29 net_003 net_011 net_002 VSS NMOS_VTL L=0.050000U W=0.210000U 
M_i_25 net_002 net_000 net_001 VSS NMOS_VTL L=0.050000U W=0.210000U 
M_i_21 net_001 RN VSS VSS NMOS_VTL L=0.050000U W=0.210000U 
M_i_13 VSS net_003 net_000 VSS NMOS_VTL L=0.050000U W=0.210000U 
M_i_7 Q net_003 VSS VSS NMOS_VTL L=0.050000U W=0.415000U 
M_i_0 VSS net_000 QN VSS NMOS_VTL L=0.050000U W=0.415000U 
.ENDS

.SUBCKT SDFFRS_X2 D RN SE SI SN CK Q QN VDD VSS 
M_i_138 VDD SE net_000 VDD PMOS_VTL L=0.050000U W=0.315000U 
M_i_145 net_020 D VDD VDD PMOS_VTL L=0.050000U W=0.420000U 
M_i_149 net_002 SE net_020 VDD PMOS_VTL L=0.050000U W=0.420000U 
M_i_155 net_021 net_000 net_002 VDD PMOS_VTL L=0.050000U W=0.315000U 
M_i_159 VDD SI net_021 VDD PMOS_VTL L=0.050000U W=0.315000U 
M_i_183 VDD net_002 net_022 VDD PMOS_VTL L=0.050000U W=0.315000U 
M_i_178 net_022 net_005 net_007 VDD PMOS_VTL L=0.050000U W=0.315000U 
M_i_193 net_007 net_004 net_023 VDD PMOS_VTL L=0.050000U W=0.090000U 
M_i_189 net_023 net_010 VDD VDD PMOS_VTL L=0.050000U W=0.090000U 
M_i_203 VDD SN net_023 VDD PMOS_VTL L=0.050000U W=0.090000U 
M_i_172 net_005 net_004 VDD VDD PMOS_VTL L=0.050000U W=0.315000U 
M_i_211 net_010 RN VDD VDD PMOS_VTL L=0.050000U W=0.315000U 
M_i_217 VDD net_007 net_010 VDD PMOS_VTL L=0.050000U W=0.315000U 
M_i_228 VDD net_007 net_025 VDD PMOS_VTL L=0.050000U W=0.315000U 
M_i_223 net_025 net_004 net_013 VDD PMOS_VTL L=0.050000U W=0.315000U 
M_i_238 net_013 net_005 net_026 VDD PMOS_VTL L=0.050000U W=0.090000U 
M_i_234 net_026 net_017 VDD VDD PMOS_VTL L=0.050000U W=0.090000U 
M_i_248 VDD RN net_026 VDD PMOS_VTL L=0.050000U W=0.090000U 
M_i_165 VDD CK net_004 VDD PMOS_VTL L=0.050000U W=0.315000U 
M_i_262 VDD net_013 net_017 VDD PMOS_VTL L=0.050000U W=0.485000U 